
Note: No compatibility mode selected!


Circuit: *include TSMC_180nm.txt

Doing analysis at TEMP = 27.000000 and TNOM = 27.000000

Using SPARSE 1.3 as Direct Linear Solver

Checking parameters for BSIM 3.2 model cmosn
Warning: Pd = 2.7e-12 is less than W.
Warning: Ps = 2.7e-12 is less than W.

Checking parameters for BSIM 3.2 model cmosn
Warning: Pd = 4.5e-12 is less than W.
Warning: Ps = 2.7e-12 is less than W.

Checking parameters for BSIM 3.2 model cmosp
Warning: Pd = 4.5e-12 is less than W.
Warning: Ps = 4.5e-12 is less than W.

Initial Transient Solution
--------------------------

Node                                   Voltage
----                                   -------
vdd                                        1.8
nout                                       1.8
b                                            0
a                                            0
out                                6.61915e-08
vb#branch                                    0
va#branch                                    0
vdd#branch                        -1.06062e-10


No. of Data Rows : 10071

  Measurements for Transient Analysis

tpd_a_lh            =  6.385800e-11 targ=  1.138580e-10 trig=  5.000000e-11
tpd_a_hl            =  6.346792e-11 targ=  1.021347e-08 trig=  1.015000e-08
avg_tpd_a           =  6.36630e-11
tpd_b_lh            =  6.385800e-11 targ=  1.138580e-10 trig=  5.000000e-11
tpd_b_hl            =  7.166854e-11 targ=  2.022167e-08 trig=  2.015000e-08
avg_tpd_b           =  6.77633e-11


Warning: command 'plot' is not available during batch simulation, ignored!
    You may use Gnuplot instead.


The file "and2_outputs.ps" may be printed on a postscript printer.
Doing analysis at TEMP = 27.000000 and TNOM = 27.000000

Using SPARSE 1.3 as Direct Linear Solver

Checking parameters for BSIM 3.2 model cmosn
Warning: Pd = 2.7e-12 is less than W.
Warning: Ps = 2.7e-12 is less than W.

Checking parameters for BSIM 3.2 model cmosn
Warning: Pd = 4.5e-12 is less than W.
Warning: Ps = 2.7e-12 is less than W.

Checking parameters for BSIM 3.2 model cmosp
Warning: Pd = 4.5e-12 is less than W.
Warning: Ps = 4.5e-12 is less than W.

Initial Transient Solution
--------------------------

Node                                   Voltage
----                                   -------
vdd                                        1.8
nout                                       1.8
b                                            0
a                                            0
out                                6.61915e-08
vb#branch                                    0
va#branch                                    0
vdd#branch                        -1.06062e-10


No. of Data Rows : 10071

  Measurements for Transient Analysis

tpd_a_lh            =  6.385800e-11 targ=  1.138580e-10 trig=  5.000000e-11
tpd_a_hl            =  6.346792e-11 targ=  1.021347e-08 trig=  1.015000e-08
Netlist line no. 68:
insertnumber: fails.
  s = ".measure tran avg_tpd_a param=    6.366295920283717e-11   " u="  6.366295920283717e-11  " id=0
avg_tpd_a           =   failed
tpd_b_lh            =  6.385800e-11 targ=  1.138580e-10 trig=  5.000000e-11
tpd_b_hl            =  7.166854e-11 targ=  2.022167e-08 trig=  2.015000e-08
Netlist line no. 72:
insertnumber: fails.
  s = ".measure tran avg_tpd_b param=    6.776327063153189e-11   " u="  6.776327063153189e-11  " id=0
avg_tpd_b           =   failed


Total analysis time (seconds) = 0.249544

Total elapsed time (seconds) = 0.254 

Total DRAM available = 15701.652 MB.
DRAM currently available = 2636.816 MB.
Maximum ngspice program size =   83.422 MB.
Current ngspice program size =   16.633 MB.

Shared ngspice pages =   12.973 MB.
Text (code) pages =    6.371 MB.
Stack = 0 bytes.
Library pages =   59.746 MB.

