
Note: No compatibility mode selected!


Circuit: *include TSMC_180nm.txt

Doing analysis at TEMP = 27.000000 and TNOM = 27.000000

Using SPARSE 1.3 as Direct Linear Solver

Checking parameters for BSIM 3.2 model cmosn
Warning: Pd = 9.9e-12 is less than W.
Warning: Ps = 5.4e-12 is less than W.

Checking parameters for BSIM 3.2 model cmosn
Warning: Pd = 2.7e-12 is less than W.
Warning: Ps = 2.7e-12 is less than W.

Checking parameters for BSIM 3.2 model cmosp
Warning: Pd = 2.7e-12 is less than W.
Warning: Ps = 2.7e-12 is less than W.

Initial Transient Solution
--------------------------

Node                                   Voltage
----                                   -------
vdd                                        1.8
nout                                       1.8
c                                            0
e                                            0
out                                7.11599e-09
d                                            0
b                                            0
a                                            0
ve#branch                                    0
vd#branch                                    0
vc#branch                                    0
vb#branch                                    0
va#branch                                    0
vdd#branch                        -1.61624e-11


No. of Data Rows : 20299

  Measurements for Transient Analysis

tpd_a_lh            =  1.123188e-10 targ=  1.623188e-10 trig=  5.000000e-11
tpd_a_hl            =  8.956068e-11 targ=  5.239561e-09 trig=  5.150000e-09
avg_tpd_a           =  1.00940e-10
tpd_b_lh            =  1.123188e-10 targ=  1.623188e-10 trig=  5.000000e-11
tpd_b_hl            =  -4.910439e-09 targ=  5.239561e-09 trig=  1.015000e-08
avg_tpd_b           =  -2.39906e-09
tpd_c_lh            =  1.123188e-10 targ=  1.623188e-10 trig=  5.000000e-11
tpd_c_hl            =  -3.481044e-08 targ=  5.239561e-09 trig=  4.005000e-08
avg_tpd_c           =  -1.73491e-08
tpd_d_lh            =  1.123188e-10 targ=  1.623188e-10 trig=  5.000000e-11
tpd_d_hl            =  -7.481044e-08 targ=  5.239561e-09 trig=  8.005000e-08
avg_tpd_d           =  -3.73491e-08
tpd_e_lh            =  1.123188e-10 targ=  1.623188e-10 trig=  5.000000e-11
tpd_e_hl            =  -1.548104e-07 targ=  5.239561e-09 trig=  1.600500e-07
avg_tpd_e           =  -7.73491e-08


Warning: command 'plot' is not available during batch simulation, ignored!
    You may use Gnuplot instead.


The file "and5_outputs.ps" may be printed on a postscript printer.
Doing analysis at TEMP = 27.000000 and TNOM = 27.000000

Using SPARSE 1.3 as Direct Linear Solver

Checking parameters for BSIM 3.2 model cmosn
Warning: Pd = 9.9e-12 is less than W.
Warning: Ps = 5.4e-12 is less than W.

Checking parameters for BSIM 3.2 model cmosn
Warning: Pd = 2.7e-12 is less than W.
Warning: Ps = 2.7e-12 is less than W.

Checking parameters for BSIM 3.2 model cmosp
Warning: Pd = 2.7e-12 is less than W.
Warning: Ps = 2.7e-12 is less than W.

Initial Transient Solution
--------------------------

Node                                   Voltage
----                                   -------
vdd                                        1.8
nout                                       1.8
c                                            0
e                                            0
out                                7.11599e-09
d                                            0
b                                            0
a                                            0
ve#branch                                    0
vd#branch                                    0
vc#branch                                    0
vb#branch                                    0
va#branch                                    0
vdd#branch                        -1.61624e-11


No. of Data Rows : 20299

  Measurements for Transient Analysis

tpd_a_lh            =  1.123188e-10 targ=  1.623188e-10 trig=  5.000000e-11
tpd_a_hl            =  8.956068e-11 targ=  5.239561e-09 trig=  5.150000e-09
Netlist line no. 94:
insertnumber: fails.
  s = ".measure tran avg_tpd_a param=    1.009397334493954e-10   " u="  1.009397334493954e-10  " id=0
avg_tpd_a           =   failed
tpd_b_lh            =  1.123188e-10 targ=  1.623188e-10 trig=  5.000000e-11
tpd_b_hl            =  -4.910439e-09 targ=  5.239561e-09 trig=  1.015000e-08
Netlist line no. 98:
insertnumber: fails.
  s = ".measure tran avg_tpd_b param=   -2.399060266550605e-09   " u=" -2.399060266550605e-09  " id=0
avg_tpd_b           =   failed
tpd_c_lh            =  1.123188e-10 targ=  1.623188e-10 trig=  5.000000e-11
tpd_c_hl            =  -3.481044e-08 targ=  5.239561e-09 trig=  4.005000e-08
Netlist line no. 102:
insertnumber: fails.
  s = ".measure tran avg_tpd_c param=   -1.734906026655060e-08   " u=" -1.734906026655060e-08  " id=0
avg_tpd_c           =   failed
tpd_d_lh            =  1.123188e-10 targ=  1.623188e-10 trig=  5.000000e-11
tpd_d_hl            =  -7.481044e-08 targ=  5.239561e-09 trig=  8.005000e-08
Netlist line no. 106:
insertnumber: fails.
  s = ".measure tran avg_tpd_d param=   -3.734906026655061e-08   " u=" -3.734906026655061e-08  " id=0
avg_tpd_d           =   failed
tpd_e_lh            =  1.123188e-10 targ=  1.623188e-10 trig=  5.000000e-11
tpd_e_hl            =  -1.548104e-07 targ=  5.239561e-09 trig=  1.600500e-07
Netlist line no. 110:
insertnumber: fails.
  s = ".measure tran avg_tpd_e param=   -7.734906026655061e-08   " u=" -7.734906026655061e-08  " id=0
avg_tpd_e           =   failed


Total analysis time (seconds) = 0.801106

Total elapsed time (seconds) = 0.811 

Total DRAM available = 15701.652 MB.
DRAM currently available = 2628.270 MB.
Maximum ngspice program size =   86.301 MB.
Current ngspice program size =   19.344 MB.

Shared ngspice pages =   12.805 MB.
Text (code) pages =    6.371 MB.
Stack = 0 bytes.
Library pages =   62.625 MB.

