
Note: No compatibility mode selected!


Circuit: *include TSMC_180nm.txt

Doing analysis at TEMP = 27.000000 and TNOM = 27.000000

Using SPARSE 1.3 as Direct Linear Solver

Checking parameters for BSIM 3.2 model cmosp
Warning: Pd = 4.5e-12 is less than W.
Warning: Ps = 4.5e-12 is less than W.

Checking parameters for BSIM 3.2 model cmosn
Warning: Pd = 2.7e-12 is less than W.
Warning: Ps = 2.7e-12 is less than W.

Initial Transient Solution
--------------------------

Node                                   Voltage
----                                   -------
vdd                                        1.8
clk                                          0
d                                            0
q                                      1.67518
vd#branch                                    0
vclk#branch                                  0
vdd#branch                        -4.94458e-05


No. of Data Rows : 8116

  Measurements for Transient Analysis

tpcq_lh             =  6.006806e-08 targ=  6.011806e-08 trig=  5.000000e-11
tpcq_hl             =  2.010624e-08 targ=  4.015624e-08 trig=  2.005000e-08
avg_tpcq            =  4.00872e-08


Warning: command 'plot' is not available during batch simulation, ignored!
    You may use Gnuplot instead.


The file "dff_outputs.ps" may be printed on a postscript printer.
Doing analysis at TEMP = 27.000000 and TNOM = 27.000000

Using SPARSE 1.3 as Direct Linear Solver

Checking parameters for BSIM 3.2 model cmosp
Warning: Pd = 4.5e-12 is less than W.
Warning: Ps = 4.5e-12 is less than W.

Checking parameters for BSIM 3.2 model cmosn
Warning: Pd = 2.7e-12 is less than W.
Warning: Ps = 2.7e-12 is less than W.

Initial Transient Solution
--------------------------

Node                                   Voltage
----                                   -------
vdd                                        1.8
clk                                          0
d                                            0
q                                      1.67518
vd#branch                                    0
vclk#branch                                  0
vdd#branch                        -4.94458e-05


No. of Data Rows : 8116

  Measurements for Transient Analysis

tpcq_lh             =  6.006806e-08 targ=  6.011806e-08 trig=  5.000000e-11
tpcq_hl             =  2.010624e-08 targ=  4.015624e-08 trig=  2.005000e-08
Netlist line no. 79:
insertnumber: fails.
  s = ".measure tran avg_tpcq param=    4.008715071670792e-08   " u="  4.008715071670792e-08  " id=0
avg_tpcq            =   failed


Total analysis time (seconds) = 0.235266

Total elapsed time (seconds) = 0.240 

Total DRAM available = 15701.652 MB.
DRAM currently available = 2636.312 MB.
Maximum ngspice program size =   83.133 MB.
Current ngspice program size =   16.184 MB.

Shared ngspice pages =   12.750 MB.
Text (code) pages =    6.371 MB.
Stack = 0 bytes.
Library pages =   59.457 MB.

