
Note: No compatibility mode selected!


Circuit: * spice3 file created from inv.ext - technology: scmos

Doing analysis at TEMP = 27.000000 and TNOM = 27.000000

Using SPARSE 1.3 as Direct Linear Solver

Checking parameters for BSIM 3.2 model cmosp
Warning: Pd = 4.5e-12 is less than W.
Warning: Ps = 4.5e-12 is less than W.

Checking parameters for BSIM 3.2 model cmosn
Warning: Pd = 2.7e-12 is less than W.
Warning: Ps = 2.7e-12 is less than W.

Initial Transient Solution
--------------------------

Node                                   Voltage
----                                   -------
vdd                                        1.8
out                                        1.8
in                                           0
vin#branch                                   0
vdd#branch                        -1.31674e-11


No. of Data Rows : 6041

  Measurements for Transient Analysis

tpd_lh              =  1.743308e-11 targ=  6.743308e-11 trig=  5.000000e-11
tpd_hl              =  2.203093e-11 targ=  1.017203e-08 trig=  1.015000e-08
avg_tpd             =  1.97320e-11


Warning: command 'plot' is not available during batch simulation, ignored!
    You may use Gnuplot instead.


The file "inv_outputs.ps" may be printed on a postscript printer.
Doing analysis at TEMP = 27.000000 and TNOM = 27.000000

Using SPARSE 1.3 as Direct Linear Solver

Checking parameters for BSIM 3.2 model cmosp
Warning: Pd = 4.5e-12 is less than W.
Warning: Ps = 4.5e-12 is less than W.

Checking parameters for BSIM 3.2 model cmosn
Warning: Pd = 2.7e-12 is less than W.
Warning: Ps = 2.7e-12 is less than W.

Initial Transient Solution
--------------------------

Node                                   Voltage
----                                   -------
vdd                                        1.8
out                                        1.8
in                                           0
vin#branch                                   0
vdd#branch                        -1.31674e-11


No. of Data Rows : 6041

  Measurements for Transient Analysis

tpd_lh              =  1.743308e-11 targ=  6.743308e-11 trig=  5.000000e-11
tpd_hl              =  2.203093e-11 targ=  1.017203e-08 trig=  1.015000e-08
Netlist line no. 42:
insertnumber: fails.
  s = ".measure tran avg_tpd param=    1.973200320918388e-11   " u="  1.973200320918388e-11  " id=0
avg_tpd             =   failed


Total analysis time (seconds) = 0.112616

Total elapsed time (seconds) = 0.116 

Total DRAM available = 15701.652 MB.
DRAM currently available = 2642.168 MB.
Maximum ngspice program size =   82.449 MB.
Current ngspice program size =   15.539 MB.

Shared ngspice pages =   12.727 MB.
Text (code) pages =    6.371 MB.
Stack = 0 bytes.
Library pages =   58.773 MB.

