
Checking parameters for BSIM 3.2 model cmosn
Warning: Pd = 2.7e-12 is less than W.
Warning: Ps = 2.7e-12 is less than W.

Checking parameters for BSIM 3.2 model cmosp
Warning: Pd = 4.5e-12 is less than W.
Warning: Ps = 4.5e-12 is less than W.

Checking parameters for BSIM 3.2 model cmosp
Warning: Pd = 8.1e-12 is less than W.
Warning: Ps = 4.5e-12 is less than W.

Note: No compatibility mode selected!


Circuit: *include TSMC_180nm.txt

Doing analysis at TEMP = 27.000000 and TNOM = 27.000000

Using SPARSE 1.3 as Direct Linear Solver

Initial Transient Solution
--------------------------

Node                                   Voltage
----                                   -------
vdd                                        1.8
a                                            0
nout                                       1.8
b                                            0
out                                  7.116e-09
vb#branch                                    0
va#branch                                    0
vdd#branch                        -3.70404e-11

 Reference value :  2.67250e-08 Reference value :  5.39950e-08 Reference value :  8.12150e-08
No. of Data Rows : 10071

  Measurements for Transient Analysis

tpd_a_lh            =  4.895017e-11 targ=  9.895017e-11 trig=  5.000000e-11
tpd_a_hl            =  2.007041e-08 targ=  3.022041e-08 trig=  1.015000e-08
avg_tpd_a           =  1.00597e-08
tpd_b_lh            =  4.895017e-11 targ=  9.895017e-11 trig=  5.000000e-11
tpd_b_hl            =  1.007041e-08 targ=  3.022041e-08 trig=  2.015000e-08
avg_tpd_b           =  5.05968e-09


Warning: command 'plot' is not available during batch simulation, ignored!
    You may use Gnuplot instead.


Checking parameters for BSIM 3.2 model cmosn
Warning: Pd = 2.7e-12 is less than W.
Warning: Ps = 2.7e-12 is less than W.

Checking parameters for BSIM 3.2 model cmosp
Warning: Pd = 4.5e-12 is less than W.
Warning: Ps = 4.5e-12 is less than W.

Checking parameters for BSIM 3.2 model cmosp
Warning: Pd = 8.1e-12 is less than W.
Warning: Ps = 4.5e-12 is less than W.
Doing analysis at TEMP = 27.000000 and TNOM = 27.000000

Using SPARSE 1.3 as Direct Linear Solver

Initial Transient Solution
--------------------------

Node                                   Voltage
----                                   -------
vdd                                        1.8
a                                            0
nout                                       1.8
b                                            0
out                                  7.116e-09
vb#branch                                    0
va#branch                                    0
vdd#branch                        -3.70404e-11

 Reference value :  1.12050e-08 Reference value :  3.92250e-08 Reference value :  6.92850e-08 Reference value :  9.70050e-08
No. of Data Rows : 10071

  Measurements for Transient Analysis

Netlist line no. 47:
insertnumber: fails.
  s = ".measure tran avg_tpd_a param=    1.005968160212726e-08   " u="  1.005968160212726e-08  " id=0
Netlist line no. 51:
insertnumber: fails.
  s = ".measure tran avg_tpd_b param=    5.059681602127258e-09   " u="  5.059681602127258e-09  " id=0
tpd_a_lh            =  4.895017e-11 targ=  9.895017e-11 trig=  5.000000e-11
tpd_a_hl            =  2.007041e-08 targ=  3.022041e-08 trig=  1.015000e-08
avg_tpd_a           =   failed
tpd_b_lh            =  4.895017e-11 targ=  9.895017e-11 trig=  5.000000e-11
tpd_b_hl            =  1.007041e-08 targ=  3.022041e-08 trig=  2.015000e-08
avg_tpd_b           =   failed


Total analysis time (seconds) = 0.226833

Total elapsed time (seconds) = 0.229 

Total DRAM available = 15701.652 MB.
DRAM currently available = 2572.797 MB.
Maximum ngspice program size =   82.875 MB.
Current ngspice program size =   15.828 MB.

Shared ngspice pages =   12.641 MB.
Text (code) pages =    6.371 MB.
Stack = 0 bytes.
Library pages =   59.199 MB.

