
Note: No compatibility mode selected!


Circuit: *include TSMC_180nm.txt

Doing analysis at TEMP = 27.000000 and TNOM = 27.000000

Using SPARSE 1.3 as Direct Linear Solver

Checking parameters for BSIM 3.2 model cmosn
Warning: Pd = 1.8e-12 is less than W.
Warning: Ps = 1.8e-12 is less than W.

Checking parameters for BSIM 3.2 model cmosp
Warning: Pd = 6.3e-12 is less than W.
Warning: Ps = 6.3e-12 is less than W.

Checking parameters for BSIM 3.2 model cmosp
Warning: Pd = 4.5e-12 is less than W.
Warning: Ps = 4.5e-12 is less than W.

Initial Transient Solution
--------------------------

Node                                   Voltage
----                                   -------
vdd                                        1.8
out                                7.11607e-09
nout                                       1.8
a                                            0
c                                            0
b                                            0
vc#branch                                    0
vb#branch                                    0
va#branch                                    0
vdd#branch                        -5.02076e-11


No. of Data Rows : 10074

  Measurements for Transient Analysis

tpd_a_lh            =  5.006769e-11 targ=  1.000677e-10 trig=  5.000000e-11
tpd_a_hl            =  6.009160e-08 targ=  7.024160e-08 trig=  1.015000e-08
avg_tpd_a           =  3.00708e-08
tpd_b_lh            =  5.006769e-11 targ=  1.000677e-10 trig=  5.000000e-11
tpd_b_hl            =  5.009160e-08 targ=  7.024160e-08 trig=  2.015000e-08
avg_tpd_b           =  2.50708e-08
tpd_c_lh            =  5.006769e-11 targ=  1.000677e-10 trig=  5.000000e-11
tpd_c_hl            =  3.009160e-08 targ=  7.024160e-08 trig=  4.015000e-08
avg_tpd_c           =  1.50708e-08


Warning: command 'plot' is not available during batch simulation, ignored!
    You may use Gnuplot instead.


The file "or3_outputs.ps" may be printed on a postscript printer.
Doing analysis at TEMP = 27.000000 and TNOM = 27.000000

Using SPARSE 1.3 as Direct Linear Solver

Checking parameters for BSIM 3.2 model cmosn
Warning: Pd = 1.8e-12 is less than W.
Warning: Ps = 1.8e-12 is less than W.

Checking parameters for BSIM 3.2 model cmosp
Warning: Pd = 6.3e-12 is less than W.
Warning: Ps = 6.3e-12 is less than W.

Checking parameters for BSIM 3.2 model cmosp
Warning: Pd = 4.5e-12 is less than W.
Warning: Ps = 4.5e-12 is less than W.

Initial Transient Solution
--------------------------

Node                                   Voltage
----                                   -------
vdd                                        1.8
out                                7.11607e-09
nout                                       1.8
a                                            0
c                                            0
b                                            0
vc#branch                                    0
vb#branch                                    0
va#branch                                    0
vdd#branch                        -5.02076e-11


No. of Data Rows : 10074

  Measurements for Transient Analysis

tpd_a_lh            =  5.006769e-11 targ=  1.000677e-10 trig=  5.000000e-11
tpd_a_hl            =  6.009160e-08 targ=  7.024160e-08 trig=  1.015000e-08
Netlist line no. 63:
insertnumber: fails.
  s = ".measure tran avg_tpd_a param=    3.007083419861523e-08   " u="  3.007083419861523e-08  " id=0
avg_tpd_a           =   failed
tpd_b_lh            =  5.006769e-11 targ=  1.000677e-10 trig=  5.000000e-11
tpd_b_hl            =  5.009160e-08 targ=  7.024160e-08 trig=  2.015000e-08
Netlist line no. 67:
insertnumber: fails.
  s = ".measure tran avg_tpd_b param=    2.507083419861522e-08   " u="  2.507083419861522e-08  " id=0
avg_tpd_b           =   failed
tpd_c_lh            =  5.006769e-11 targ=  1.000677e-10 trig=  5.000000e-11
tpd_c_hl            =  3.009160e-08 targ=  7.024160e-08 trig=  4.015000e-08
Netlist line no. 71:
insertnumber: fails.
  s = ".measure tran avg_tpd_c param=    1.507083419861523e-08   " u="  1.507083419861523e-08  " id=0
avg_tpd_c           =   failed


Total analysis time (seconds) = 0.249993

Total elapsed time (seconds) = 0.255 

Total DRAM available = 15701.652 MB.
DRAM currently available = 2668.270 MB.
Maximum ngspice program size =   83.512 MB.
Current ngspice program size =   16.750 MB.

Shared ngspice pages =   12.922 MB.
Text (code) pages =    6.371 MB.
Stack = 0 bytes.
Library pages =   59.836 MB.

