
Note: No compatibility mode selected!


Circuit: * spice3 file created from or5.ext - technology: scmos

Doing analysis at TEMP = 27.000000 and TNOM = 27.000000

Using SPARSE 1.3 as Direct Linear Solver

Checking parameters for BSIM 3.2 model cmosp
Warning: Pd = 1.89e-11 is less than W.
Warning: Ps = 9.9e-12 is less than W.

Checking parameters for BSIM 3.2 model cmosp
Warning: Pd = 4.5e-12 is less than W.
Warning: Ps = 4.5e-12 is less than W.

Checking parameters for BSIM 3.2 model cmosn
Warning: Pd = 2.7e-12 is less than W.
Warning: Ps = 2.7e-12 is less than W.

Initial Transient Solution
--------------------------

Node                                   Voltage
----                                   -------
vdd                                        1.8
d                                            0
nout                                       1.8
c                                            0
b                                            0
e                                            0
a                                            0
out                                7.11603e-09
ve#branch                                    0
vd#branch                                    0
vc#branch                                    0
vb#branch                                    0
va#branch                                    0
vdd#branch                        -7.65426e-11


No. of Data Rows : 40299

  Measurements for Transient Analysis

tpd_a_lh            =  5.474715e-11 targ=  1.047471e-10 trig=  5.000000e-11
tpd_a_hl            =  3.000753e-07 targ=  3.102253e-07 trig=  1.015000e-08
avg_tpd_a           =  1.50065e-07
tpd_b_lh            =  5.474715e-11 targ=  1.047471e-10 trig=  5.000000e-11
tpd_b_hl            =  2.900753e-07 targ=  3.102253e-07 trig=  2.015000e-08
avg_tpd_b           =  1.45065e-07
tpd_c_lh            =  5.474715e-11 targ=  1.047471e-10 trig=  5.000000e-11
tpd_c_hl            =  2.700753e-07 targ=  3.102253e-07 trig=  4.015000e-08
avg_tpd_c           =  1.35065e-07
tpd_d_lh            =  5.474715e-11 targ=  1.047471e-10 trig=  5.000000e-11
tpd_d_hl            =  1.501753e-07 targ=  3.102253e-07 trig=  1.600500e-07
avg_tpd_d           =  7.51150e-08
tpd_e_lh            =  5.474715e-11 targ=  1.047471e-10 trig=  5.000000e-11
tpd_e_hl            =  -9.824733e-09 targ=  3.102253e-07 trig=  3.200500e-07
avg_tpd_e           =  -4.88499e-09


Warning: command 'plot' is not available during batch simulation, ignored!
    You may use Gnuplot instead.

Doing analysis at TEMP = 27.000000 and TNOM = 27.000000

Using SPARSE 1.3 as Direct Linear Solver

Checking parameters for BSIM 3.2 model cmosp
Warning: Pd = 1.89e-11 is less than W.
Warning: Ps = 9.9e-12 is less than W.

Checking parameters for BSIM 3.2 model cmosp
Warning: Pd = 4.5e-12 is less than W.
Warning: Ps = 4.5e-12 is less than W.

Checking parameters for BSIM 3.2 model cmosn
Warning: Pd = 2.7e-12 is less than W.
Warning: Ps = 2.7e-12 is less than W.

Initial Transient Solution
--------------------------

Node                                   Voltage
----                                   -------
vdd                                        1.8
d                                            0
nout                                       1.8
c                                            0
b                                            0
e                                            0
a                                            0
out                                7.11603e-09
ve#branch                                    0
vd#branch                                    0
vc#branch                                    0
vb#branch                                    0
va#branch                                    0
vdd#branch                        -7.65426e-11


No. of Data Rows : 40299

  Measurements for Transient Analysis

tpd_a_lh            =  5.474715e-11 targ=  1.047471e-10 trig=  5.000000e-11
tpd_a_hl            =  3.000753e-07 targ=  3.102253e-07 trig=  1.015000e-08
Netlist line no. 92:
insertnumber: fails.
  s = ".measure tran avg_tpd_a param=    1.500650069890998e-07   " u="  1.500650069890998e-07  " id=0
avg_tpd_a           =   failed
tpd_b_lh            =  5.474715e-11 targ=  1.047471e-10 trig=  5.000000e-11
tpd_b_hl            =  2.900753e-07 targ=  3.102253e-07 trig=  2.015000e-08
Netlist line no. 96:
insertnumber: fails.
  s = ".measure tran avg_tpd_b param=    1.450650069890998e-07   " u="  1.450650069890998e-07  " id=0
avg_tpd_b           =   failed
tpd_c_lh            =  5.474715e-11 targ=  1.047471e-10 trig=  5.000000e-11
tpd_c_hl            =  2.700753e-07 targ=  3.102253e-07 trig=  4.015000e-08
Netlist line no. 100:
insertnumber: fails.
  s = ".measure tran avg_tpd_c param=    1.350650069890998e-07   " u="  1.350650069890998e-07  " id=0
avg_tpd_c           =   failed
tpd_d_lh            =  5.474715e-11 targ=  1.047471e-10 trig=  5.000000e-11
tpd_d_hl            =  1.501753e-07 targ=  3.102253e-07 trig=  1.600500e-07
Netlist line no. 104:
insertnumber: fails.
  s = ".measure tran avg_tpd_d param=    7.511500698909979e-08   " u="  7.511500698909979e-08  " id=0
avg_tpd_d           =   failed
tpd_e_lh            =  5.474715e-11 targ=  1.047471e-10 trig=  5.000000e-11
tpd_e_hl            =  -9.824733e-09 targ=  3.102253e-07 trig=  3.200500e-07
Netlist line no. 108:
insertnumber: fails.
  s = ".measure tran avg_tpd_e param=   -4.884993010900217e-09   " u=" -4.884993010900217e-09  " id=0
avg_tpd_e           =   failed


Total analysis time (seconds) = 1.38738

Total elapsed time (seconds) = 1.393 

Total DRAM available = 15701.652 MB.
DRAM currently available = 2656.027 MB.
Maximum ngspice program size =   89.934 MB.
Current ngspice program size =   22.863 MB.

Shared ngspice pages =   12.664 MB.
Text (code) pages =    6.371 MB.
Stack = 0 bytes.
Library pages =   66.258 MB.

