
Checking parameters for BSIM 3.2 model cmosn
Warning: Pd = 2.7e-12 is less than W.
Warning: Ps = 2.7e-12 is less than W.

Checking parameters for BSIM 3.2 model cmosp
Warning: Pd = 4.5e-12 is less than W.
Warning: Ps = 4.5e-12 is less than W.

Note: No compatibility mode selected!


Circuit: *include TSMC_180nm.txt

Doing analysis at TEMP = 27.000000 and TNOM = 27.000000

Using SPARSE 1.3 as Direct Linear Solver

Initial Transient Solution
--------------------------

Node                                   Voltage
----                                   -------
vdd                                        1.8
abar                                       1.8
a                                            0
b                                            0
out                                 2.5054e-08
bbar                                       1.8
vab#branch                                   0
vb#branch                                    0
vaa#branch                                   0
va#branch                                    0
vdd#branch                        -3.44334e-11

 Reference value :  2.19250e-08 Reference value :  4.50850e-08
No. of Data Rows : 6044

  Measurements for Transient Analysis

tpd_a_lh            =  1.015943e-08 targ=  1.020943e-08 trig=  5.000000e-11
tpd_a_hl            =  9.945224e-09 targ=  2.009522e-08 trig=  1.015000e-08
avg_tpd_a           =  1.00523e-08
tpd_b_lh            =  1.015943e-08 targ=  1.020943e-08 trig=  5.000000e-11
tpd_b_hl            =  -5.477609e-11 targ=  2.009522e-08 trig=  2.015000e-08
avg_tpd_b           =  5.05233e-09


Warning: command 'plot' is not available during batch simulation, ignored!
    You may use Gnuplot instead.


Checking parameters for BSIM 3.2 model cmosn
Warning: Pd = 2.7e-12 is less than W.
Warning: Ps = 2.7e-12 is less than W.

Checking parameters for BSIM 3.2 model cmosp
Warning: Pd = 4.5e-12 is less than W.
Warning: Ps = 4.5e-12 is less than W.

The file "xor_outputs.ps" may be printed on a postscript printer.
Doing analysis at TEMP = 27.000000 and TNOM = 27.000000

Using SPARSE 1.3 as Direct Linear Solver

Initial Transient Solution
--------------------------

Node                                   Voltage
----                                   -------
vdd                                        1.8
abar                                       1.8
a                                            0
b                                            0
out                                 2.5054e-08
bbar                                       1.8
vab#branch                                   0
vb#branch                                    0
vaa#branch                                   0
va#branch                                    0
vdd#branch                        -3.44334e-11

 Reference value :  7.52500e-09 Reference value :  3.17150e-08 Reference value :  5.61650e-08
No. of Data Rows : 6044

  Measurements for Transient Analysis

Netlist line no. 71:
insertnumber: fails.
  s = ".measure tran avg_tpd_a param=    1.005232848992330e-08   " u="  1.005232848992330e-08  " id=0
Netlist line no. 75:
insertnumber: fails.
  s = ".measure tran avg_tpd_b param=    5.052328489923300e-09   " u="  5.052328489923300e-09  " id=0
tpd_a_lh            =  1.015943e-08 targ=  1.020943e-08 trig=  5.000000e-11
tpd_a_hl            =  9.945224e-09 targ=  2.009522e-08 trig=  1.015000e-08
avg_tpd_a           =   failed
tpd_b_lh            =  1.015943e-08 targ=  1.020943e-08 trig=  5.000000e-11
tpd_b_hl            =  -5.477609e-11 targ=  2.009522e-08 trig=  2.015000e-08
avg_tpd_b           =   failed


Total analysis time (seconds) = 0.162039

Total elapsed time (seconds) = 0.166 

Total DRAM available = 15701.652 MB.
DRAM currently available = 2582.582 MB.
Maximum ngspice program size =   82.961 MB.
Current ngspice program size =   16.082 MB.

Shared ngspice pages =   12.758 MB.
Text (code) pages =    6.371 MB.
Stack = 0 bytes.
Library pages =   59.285 MB.

